  
       XFOIL         Version 6.99
  
 Calculated polar for: BE50 (original)                                 
  
 1 1 Reynolds number fixed          Mach number fixed         
  
 xtrf =   1.000 (top)        1.000 (bottom)  
 Mach =   0.000     Re =     0.100 e 6     Ncrit =   9.000
  
   alpha    CL        CD       CDp       CM     Top_Xtr  Bot_Xtr
  ------ -------- --------- --------- -------- -------- --------
   0.000   0.5254   0.01493   0.00776  -0.1099   0.9046   1.0000
   1.000   0.6634   0.01413   0.00677  -0.1119   0.8421   1.0000
   2.000   0.7768   0.01374   0.00617  -0.1081   0.7492   1.0000
   3.000   0.8765   0.01464   0.00652  -0.1029   0.6132   1.0000
   4.000   0.9757   0.01655   0.00806  -0.0995   0.4959   1.0000
   5.000   1.0741   0.01857   0.00993  -0.0968   0.4090   1.0000
   6.000   1.1631   0.02080   0.01216  -0.0929   0.3100   1.0000
   7.000   1.2144   0.02750   0.01776  -0.0842   0.0333   1.0000
   8.000   1.2660   0.03544   0.02669  -0.0747   0.0278   1.0000
   9.000   1.3163   0.04771   0.04018  -0.0663   0.0283   1.0000
  10.000   1.2936   0.06246   0.05631  -0.0548   0.0301   1.0000
  11.000   1.2201   0.08182   0.07666  -0.0540   0.0311   1.0000
  12.000   1.1288   0.11417   0.10968  -0.0735   0.0317   1.0000
  13.000   1.0541   0.15543   0.15101  -0.0967   0.0337   1.0000
  14.000   1.0402   0.18723   0.18275  -0.1108   0.0439   1.0000
  15.000   1.0347   0.21877   0.21422  -0.1260   0.0811   1.0000
  16.000   1.0549   0.23506   0.23049  -0.1344   0.0731   1.0000
  17.000   1.0850   0.25174   0.24721  -0.1382   0.0663   1.0000
  18.000   1.1067   0.28174   0.27719  -0.1422   0.0621   1.0000
  19.000   1.1225   0.29188   0.28730  -0.1549   0.0603   1.0000
  20.000   1.1425   0.30576   0.30118  -0.1669   0.0518   1.0000
  21.000   1.1648   0.32367   0.31913  -0.1744   0.0456   1.0000
  22.000   1.1870   0.34237   0.33809  -0.1797   0.0408   1.0000
