  
       XFOIL         Version 6.99
  
 Calculated polar for: a18                                             
  
 1 1 Reynolds number fixed          Mach number fixed         
  
 xtrf =   1.000 (top)        1.000 (bottom)  
 Mach =   0.000     Re =     0.100 e 6     Ncrit =   9.000
  
   alpha    CL        CD       CDp       CM     Top_Xtr  Bot_Xtr
  ------ -------- --------- --------- -------- -------- --------
   0.000   0.4890   0.01803   0.01055  -0.1105   0.9406   1.0000
   1.000   0.6539   0.01778   0.01036  -0.1209   0.8997   1.0000
   2.000   0.8004   0.01625   0.00911  -0.1240   0.8437   1.0000
   3.000   0.9164   0.01571   0.00891  -0.1212   0.7709   1.0000
   4.000   1.0168   0.01584   0.00928  -0.1154   0.6618   1.0000
   5.000   1.0879   0.01790   0.01033  -0.1048   0.3619   1.0000
   6.000   1.1260   0.02695   0.01709  -0.0929   0.0625   1.0000
   7.000   1.2156   0.03635   0.02683  -0.0881   0.0447   1.0000
   8.000   1.2869   0.05028   0.04253  -0.0808   0.0431   1.0000
   9.000   1.2835   0.06901   0.06305  -0.0685   0.0469   1.0000
  11.000   0.9552   0.11561   0.11155  -0.0572   0.0561   1.0000
  13.000   0.8207   0.17557   0.17141  -0.0837   0.1107   1.0000
  14.000   0.8027   0.18759   0.18343  -0.0887   0.0993   1.0000
  15.000   0.7957   0.19945   0.19529  -0.0934   0.0878   1.0000
  16.000   0.7970   0.21163   0.20747  -0.0977   0.0770   1.0000
  17.000   0.8112   0.22552   0.22140  -0.1002   0.0691   1.0000
  18.000   0.8135   0.23684   0.23275  -0.1052   0.0602   1.0000
  19.000   0.8157   0.24958   0.24552  -0.1107   0.0544   1.0000
  20.000   0.8419   0.26770   0.26371  -0.1116   0.0483   1.0000
  21.000   0.8329   0.27582   0.27185  -0.1195   0.0442   1.0000
  22.000   0.8500   0.29188   0.28797  -0.1216   0.0395   1.0000
