  
       XFOIL         Version 6.99
  
 Calculated polar for: pk1Lakh                                         
  
 1 1 Reynolds number fixed          Mach number fixed         
  
 xtrf =   1.000 (top)        1.000 (bottom)  
 Mach =   0.000     Re =     0.200 e 6     Ncrit =   9.000
  
   alpha    CL        CD       CDp       CM     Top_Xtr  Bot_Xtr
  ------ -------- --------- --------- -------- -------- --------
   0.000   0.6498   0.02311   0.01727  -0.1464   0.7971   0.1535
   1.000   0.7733   0.01628   0.00920  -0.1457   0.7627   0.0697
   2.000   0.8906   0.01329   0.00554  -0.1442   0.7006   0.0658
   3.000   1.0064   0.01138   0.00483  -0.1444   0.6334   1.0000
   4.000   1.0929   0.01227   0.00510  -0.1386   0.5668   1.0000
   5.000   1.1703   0.01329   0.00586  -0.1315   0.5073   1.0000
   6.000   1.2283   0.01457   0.00686  -0.1207   0.4322   1.0000
   7.000   1.2754   0.01627   0.00818  -0.1085   0.3575   1.0000
   8.000   1.3311   0.01824   0.01006  -0.0990   0.3091   1.0000
   9.000   1.3888   0.02030   0.01243  -0.0905   0.2698   1.0000
  10.000   1.4012   0.02488   0.01646  -0.0773   0.1479   1.0000
  11.000   1.4189   0.03027   0.02175  -0.0670   0.0957   1.0000
  12.000   1.4332   0.03653   0.02833  -0.0583   0.0787   1.0000
  13.000   1.4513   0.04332   0.03582  -0.0519   0.0712   1.0000
  14.000   1.4191   0.05629   0.04922  -0.0456   0.0476   1.0000
  15.000   1.4171   0.06792   0.06122  -0.0447   0.0346   1.0000
  16.000   1.3860   0.08412   0.07779  -0.0444   0.0280   1.0000
  17.000   1.3795   0.09820   0.09248  -0.0464   0.0250   1.0000
  18.000   1.3562   0.11626   0.11120  -0.0517   0.0226   1.0000
  19.000   1.3023   0.14181   0.13754  -0.0639   0.0222   1.0000
  20.000   1.1993   0.18256   0.17903  -0.0885   0.0235   1.0000
  21.000   1.1110   0.23781   0.23428  -0.1138   0.0273   1.0000
  22.000   1.0977   0.28253   0.27899  -0.1268   0.0472   1.0000
